<?xml version="1.0" encoding="UTF-8"?>

<!-- generated on Thu Apr 30 12:17:26 2020 by Eclipse SUMO netedit Version 1.5.0
<configuration xmlns:xsi="http://www.w3.org/2001/XMLSchema-instance" xsi:noNamespaceSchemaLocation="http://sumo.dlr.de/xsd/netconvertConfiguration.xsd">

    <input>
        <sumo-net-file value="G2/Bp2_TL.net.xml"/>
    </input>

    <output>
        <output-file value="G2/Bp2_TL.net.xml"/>
    </output>

    <processing>
        <geometry.min-radius.fix.railways value="false"/>
        <geometry.max-grade.fix value="false"/>
        <offset.disable-normalization value="true"/>
        <lefthand value="false"/>
    </processing>

    <junctions>
        <no-turnarounds value="true"/>
        <junctions.corner-detail value="5"/>
        <junctions.limit-turn-speed value="5.5"/>
        <rectangular-lane-cut value="false"/>
    </junctions>

    <pedestrian>
        <walkingareas value="false"/>
    </pedestrian>

    <report>
        <aggregate-warnings value="5"/>
    </report>

</configuration>
-->

<net version="1.3" junctionCornerDetail="5" limitTurnSpeed="5.50" xmlns:xsi="http://www.w3.org/2001/XMLSchema-instance" xsi:noNamespaceSchemaLocation="http://sumo.dlr.de/xsd/net_file.xsd">

    <location netOffset="0.00,0.00" convBoundary="5.44,25.41,84.39,84.03" origBoundary="-10000000000.00,-10000000000.00,10000000000.00,10000000000.00" projParameter="!"/>

    <edge id=":gneJ5_0" function="internal">
        <lane id=":gneJ5_0_0" index="0" speed="6.12" length="10.17" shape="8.65,62.63 6.35,60.75 5.52,58.80 6.16,56.78 8.27,54.69"/>
    </edge>
    <edge id=":gneJ5_1" function="internal">
        <lane id=":gneJ5_1_0" index="0" speed="3.93" length="3.39" shape="10.19,57.25 9.48,57.95 9.27,58.62 9.55,59.27 10.31,59.90"/>
    </edge>
    <edge id=":gneJ6_0" function="internal">
        <lane id=":gneJ6_0_0" index="0" speed="11.46" length="19.29" shape="56.27,80.11 51.59,82.31 46.98,83.11 42.46,82.52 38.01,80.53"/>
    </edge>
    <edge id=":gneJ6_1" function="internal">
        <lane id=":gneJ6_1_0" index="0" speed="7.38" length="9.45" shape="56.27,80.11 51.41,82.30 48.04,81.98 47.64,81.38"/>
    </edge>
    <edge id=":gneJ6_6" function="internal">
        <lane id=":gneJ6_6_0" index="0" speed="7.38" length="7.99" shape="47.64,81.38 46.17,79.17 45.79,73.85"/>
    </edge>
    <edge id=":gneJ6_2" function="internal">
        <lane id=":gneJ6_2_0" index="0" speed="5.59" length="9.34" shape="48.98,74.02 49.18,76.88 50.19,78.38 52.00,78.55 54.60,77.38"/>
    </edge>
    <edge id=":gneJ6_3" function="internal">
        <lane id=":gneJ6_3_0" index="0" speed="7.53" length="17.12" shape="48.98,74.02 48.03,79.22 45.88,82.03 42.54,82.47 38.01,80.53"/>
    </edge>
    <edge id=":gneJ6_4" function="internal">
        <lane id=":gneJ6_4_0" index="0" speed="5.85" length="9.75" shape="39.67,77.80 42.19,78.85 44.05,78.55 45.25,76.88 45.79,73.85"/>
    </edge>
    <edge id=":gneJ6_5" function="internal">
        <lane id=":gneJ6_5_0" index="0" speed="10.40" length="15.76" shape="39.67,77.80 43.29,79.41 46.98,79.87 50.75,79.20 54.60,77.38"/>
    </edge>
    <edge id=":gneJ7_0" function="internal">
        <lane id=":gneJ7_0_0" index="0" speed="6.08" length="9.04" shape="82.78,57.00 84.27,59.08 84.61,61.01 83.80,62.79 81.83,64.43"/>
    </edge>
    <edge id=":gneJ7_1" function="internal">
        <lane id=":gneJ7_1_0" index="0" speed="3.91" length="3.01" shape="80.16,61.70 80.82,61.15 81.09,60.56 80.97,59.92 80.47,59.22"/>
    </edge>
    <edge id=":gneJ8_0" function="internal">
        <lane id=":gneJ8_0_0" index="0" speed="5.49" length="9.63" shape="56.80,34.68 54.45,32.74 52.71,32.45 51.58,33.81 51.06,36.81"/>
    </edge>
    <edge id=":gneJ8_1" function="internal">
        <lane id=":gneJ8_1_0" index="0" speed="8.91" length="16.15" shape="56.80,34.68 53.32,31.91 49.75,30.74 46.09,31.17 42.35,33.19"/>
    </edge>
    <edge id=":gneJ8_2" function="internal">
        <lane id=":gneJ8_2_0" index="0" speed="10.06" length="20.85" shape="40.43,30.63 45.29,27.99 50.02,27.41 54.62,28.90 59.11,32.46"/>
    </edge>
    <edge id=":gneJ8_3" function="internal">
        <lane id=":gneJ8_3_0" index="0" speed="7.44" length="10.60" shape="40.43,30.63 45.39,27.81 48.81,27.90 49.60,29.14"/>
    </edge>
    <edge id=":gneJ8_6" function="internal">
        <lane id=":gneJ8_6_0" index="0" speed="7.44" length="8.00" shape="49.60,29.14 50.70,30.90 51.06,36.81"/>
    </edge>
    <edge id=":gneJ8_4" function="internal">
        <lane id=":gneJ8_4_0" index="0" speed="5.60" length="9.82" shape="47.86,36.64 47.68,33.46 46.70,31.83 44.93,31.74 42.35,33.19"/>
    </edge>
    <edge id=":gneJ8_5" function="internal">
        <lane id=":gneJ8_5_0" index="0" speed="7.40" length="18.84" shape="47.86,36.64 48.88,30.76 51.09,28.10 54.50,28.67 59.11,32.46"/>
    </edge>

    <edge id="-gneE10" from="gneJ6" to="gneJ8" priority="-1" length="70.00">
        <lane id="-gneE10_0" index="0" speed="8.33" length="70.00" shape="45.79,73.85 47.86,36.64"/>
    </edge>
    <edge id="-gneE6" from="gneJ6" to="gneJ5" priority="-1" length="70.00">
        <lane id="-gneE6_0" index="0" speed="25.00" length="70.00" shape="38.01,80.53 8.65,62.63"/>
    </edge>
    <edge id="-gneE7" from="gneJ8" to="gneJ7" priority="-1" length="70.00">
        <lane id="-gneE7_0" index="0" speed="25.00" length="70.00" shape="59.11,32.46 82.78,57.00"/>
    </edge>
    <edge id="-gneE8" from="gneJ8" to="gneJ5" priority="-1" length="70.00">
        <lane id="-gneE8_0" index="0" speed="25.00" length="70.00" shape="42.35,33.19 10.19,57.25"/>
    </edge>
    <edge id="-gneE9" from="gneJ7" to="gneJ6" priority="-1" length="70.00">
        <lane id="-gneE9_0" index="0" speed="25.00" length="70.00" shape="81.83,64.43 56.27,80.11"/>
    </edge>
    <edge id="gneE10" from="gneJ8" to="gneJ6" priority="-1" length="70.00">
        <lane id="gneE10_0" index="0" speed="8.33" length="70.00" shape="51.06,36.81 48.98,74.02"/>
    </edge>
    <edge id="gneE6" from="gneJ5" to="gneJ6" priority="-1" length="70.00">
        <lane id="gneE6_0" index="0" speed="25.00" length="70.00" shape="10.31,59.90 39.67,77.80"/>
    </edge>
    <edge id="gneE7" from="gneJ7" to="gneJ8" priority="-1" length="70.00">
        <lane id="gneE7_0" index="0" speed="25.00" length="70.00" shape="80.47,59.22 56.80,34.68"/>
    </edge>
    <edge id="gneE8" from="gneJ5" to="gneJ8" priority="-1" length="70.00">
        <lane id="gneE8_0" index="0" speed="25.00" length="70.00" shape="8.27,54.69 40.43,30.63"/>
    </edge>
    <edge id="gneE9" from="gneJ6" to="gneJ7" priority="-1" length="70.00">
        <lane id="gneE9_0" index="0" speed="25.00" length="70.00" shape="54.60,77.38 80.16,61.70"/>
    </edge>

    <tlLogic id="gneJ5" type="static" programID="0" offset="0">
        <phase duration="41" state="Gr"/>
        <phase duration="4"  state="yg"/>
        <phase duration="41" state="rg"/>
        <phase duration="4"  state="yy"/>
    </tlLogic>
    <tlLogic id="gneJ6" type="static" programID="0" offset="0">
        <phase duration="38" state="GgrrGG"/>
        <phase duration="3"  state="ygrryy"/>
        <phase duration="6"  state="GGrrrr"/>
        <phase duration="3"  state="yyrrrr"/>
        <phase duration="37" state="rrGGGr"/>
        <phase duration="3"  state="rryyyr"/>
    </tlLogic>
    <tlLogic id="gneJ7" type="static" programID="0" offset="0">
        <phase duration="41" state="Gr"/>
        <phase duration="4"  state="yG"/>
        <phase duration="41" state="rg"/>
        <phase duration="4"  state="yy"/>
    </tlLogic>
    <tlLogic id="gneJ8" type="static" programID="0" offset="0">
        <phase duration="38" state="GGGgrr"/>
        <phase duration="3"  state="yyygrr"/>
        <phase duration="6"  state="rrGGrr"/>
        <phase duration="3"  state="rryyrr"/>
        <phase duration="37" state="GrrrGG"/>
        <phase duration="3"  state="yrrryy"/>
    </tlLogic>

    <junction id="gneJ5" type="traffic_light" x="5.44" y="58.80" incLanes="-gneE6_0 -gneE8_0" intLanes=":gneJ5_0_0 :gneJ5_1_0" shape="7.81,63.99 11.14,58.53 7.31,53.40 5.22,55.27 4.00,57.10 3.65,58.88 4.17,60.63 5.56,62.33">
        <request index="0" response="00" foes="00" cont="0"/>
        <request index="1" response="00" foes="00" cont="0"/>
    </junction>
    <junction id="gneJ6" type="traffic_light" x="46.82" y="84.03" incLanes="-gneE9_0 gneE10_0 gneE6_0" intLanes=":gneJ6_0_0 :gneJ6_6_0 :gneJ6_2_0 :gneJ6_3_0 :gneJ6_4_0 :gneJ6_5_0" shape="57.11,81.47 53.76,76.01 51.90,76.73 51.26,76.59 50.83,76.10 50.60,75.28 50.58,74.11 44.19,73.76 43.66,76.17 43.14,76.81 42.43,77.06 41.56,76.94 40.51,76.43 37.18,81.90 40.41,83.52 43.68,84.46 46.98,84.73 50.32,84.32 53.70,83.24">
        <request index="0" response="000000" foes="001000" cont="0"/>
        <request index="1" response="110000" foes="111000" cont="1"/>
        <request index="2" response="100000" foes="100000" cont="0"/>
        <request index="3" response="100011" foes="100011" cont="0"/>
        <request index="4" response="000000" foes="000010" cont="0"/>
        <request index="5" response="000000" foes="001110" cont="0"/>
    </junction>
    <junction id="gneJ7" type="traffic_light" x="84.39" y="60.98" incLanes="-gneE7_0 gneE9_0" intLanes=":gneJ7_0_0 :gneJ7_1_0" shape="83.93,55.89 79.32,60.33 82.67,65.79 84.59,64.36 85.83,62.84 86.38,61.23 86.25,59.54 85.43,57.76">
        <request index="0" response="00" foes="00" cont="0"/>
        <request index="1" response="00" foes="00" cont="0"/>
    </junction>
    <junction id="gneJ8" type="traffic_light" x="50.09" y="25.41" incLanes="gneE7_0 gneE8_0 -gneE10_0" intLanes=":gneJ8_0_0 :gneJ8_1_0 :gneJ8_2_0 :gneJ8_6_0 :gneJ8_4_0 :gneJ8_5_0" shape="55.65,35.79 60.26,31.35 56.95,28.46 53.58,26.60 50.15,25.75 46.66,25.93 43.10,27.13 39.48,29.35 43.31,34.48 45.06,33.64 45.65,33.80 46.05,34.33 46.25,35.25 46.26,36.55 52.65,36.90 53.09,35.00 53.52,34.63 54.09,34.63 54.80,35.02">
        <request index="0" response="000000" foes="001000" cont="0"/>
        <request index="1" response="000000" foes="111000" cont="0"/>
        <request index="2" response="000000" foes="100000" cont="0"/>
        <request index="3" response="000011" foes="100011" cont="1"/>
        <request index="4" response="000010" foes="000010" cont="0"/>
        <request index="5" response="001110" foes="001110" cont="0"/>
    </junction>

    <junction id=":gneJ6_6_0" type="internal" x="47.64" y="81.38" incLanes=":gneJ6_1_0 gneE6_0" intLanes=":gneJ6_3_0 :gneJ6_4_0 :gneJ6_5_0"/>
    <junction id=":gneJ8_6_0" type="internal" x="49.60" y="29.14" incLanes=":gneJ8_3_0 gneE7_0" intLanes=":gneJ8_0_0 :gneJ8_1_0 :gneJ8_5_0"/>

    <connection from="-gneE10" to="-gneE8" fromLane="0" toLane="0" via=":gneJ8_4_0" tl="gneJ8" linkIndex="4" dir="r" state="o"/>
    <connection from="-gneE10" to="-gneE7" fromLane="0" toLane="0" via=":gneJ8_5_0" tl="gneJ8" linkIndex="5" dir="l" state="o"/>
    <connection from="-gneE6" to="gneE8" fromLane="0" toLane="0" via=":gneJ5_0_0" tl="gneJ5" linkIndex="0" dir="l" state="O"/>
    <connection from="-gneE7" to="-gneE9" fromLane="0" toLane="0" via=":gneJ7_0_0" tl="gneJ7" linkIndex="0" dir="l" state="O"/>
    <connection from="-gneE8" to="gneE6" fromLane="0" toLane="0" via=":gneJ5_1_0" tl="gneJ5" linkIndex="1" dir="r" state="O"/>
    <connection from="-gneE9" to="-gneE6" fromLane="0" toLane="0" via=":gneJ6_0_0" tl="gneJ6" linkIndex="0" dir="L" state="O"/>
    <connection from="-gneE9" to="-gneE10" fromLane="0" toLane="0" via=":gneJ6_1_0" tl="gneJ6" linkIndex="1" dir="l" state="o"/>
    <connection from="gneE10" to="gneE9" fromLane="0" toLane="0" via=":gneJ6_2_0" tl="gneJ6" linkIndex="2" dir="r" state="o"/>
    <connection from="gneE10" to="-gneE6" fromLane="0" toLane="0" via=":gneJ6_3_0" tl="gneJ6" linkIndex="3" dir="l" state="o"/>
    <connection from="gneE6" to="-gneE10" fromLane="0" toLane="0" via=":gneJ6_4_0" tl="gneJ6" linkIndex="4" dir="r" state="O"/>
    <connection from="gneE6" to="gneE9" fromLane="0" toLane="0" via=":gneJ6_5_0" tl="gneJ6" linkIndex="5" dir="R" state="O"/>
    <connection from="gneE7" to="gneE10" fromLane="0" toLane="0" via=":gneJ8_0_0" tl="gneJ8" linkIndex="0" dir="r" state="O"/>
    <connection from="gneE7" to="-gneE8" fromLane="0" toLane="0" via=":gneJ8_1_0" tl="gneJ8" linkIndex="1" dir="R" state="O"/>
    <connection from="gneE8" to="-gneE7" fromLane="0" toLane="0" via=":gneJ8_2_0" tl="gneJ8" linkIndex="2" dir="L" state="O"/>
    <connection from="gneE8" to="gneE10" fromLane="0" toLane="0" via=":gneJ8_3_0" tl="gneJ8" linkIndex="3" dir="l" state="o"/>
    <connection from="gneE9" to="gneE7" fromLane="0" toLane="0" via=":gneJ7_1_0" tl="gneJ7" linkIndex="1" dir="r" state="O"/>

    <connection from=":gneJ5_0" to="gneE8" fromLane="0" toLane="0" dir="l" state="M"/>
    <connection from=":gneJ5_1" to="gneE6" fromLane="0" toLane="0" dir="r" state="M"/>
    <connection from=":gneJ6_0" to="-gneE6" fromLane="0" toLane="0" dir="L" state="M"/>
    <connection from=":gneJ6_1" to="-gneE10" fromLane="0" toLane="0" via=":gneJ6_6_0" dir="l" state="m"/>
    <connection from=":gneJ6_6" to="-gneE10" fromLane="0" toLane="0" dir="l" state="M"/>
    <connection from=":gneJ6_2" to="gneE9" fromLane="0" toLane="0" dir="r" state="M"/>
    <connection from=":gneJ6_3" to="-gneE6" fromLane="0" toLane="0" dir="l" state="M"/>
    <connection from=":gneJ6_4" to="-gneE10" fromLane="0" toLane="0" dir="r" state="M"/>
    <connection from=":gneJ6_5" to="gneE9" fromLane="0" toLane="0" dir="R" state="M"/>
    <connection from=":gneJ7_0" to="-gneE9" fromLane="0" toLane="0" dir="l" state="M"/>
    <connection from=":gneJ7_1" to="gneE7" fromLane="0" toLane="0" dir="r" state="M"/>
    <connection from=":gneJ8_0" to="gneE10" fromLane="0" toLane="0" dir="r" state="M"/>
    <connection from=":gneJ8_1" to="-gneE8" fromLane="0" toLane="0" dir="R" state="M"/>
    <connection from=":gneJ8_2" to="-gneE7" fromLane="0" toLane="0" dir="L" state="M"/>
    <connection from=":gneJ8_3" to="gneE10" fromLane="0" toLane="0" via=":gneJ8_6_0" dir="l" state="m"/>
    <connection from=":gneJ8_6" to="gneE10" fromLane="0" toLane="0" dir="l" state="M"/>
    <connection from=":gneJ8_4" to="-gneE8" fromLane="0" toLane="0" dir="r" state="M"/>
    <connection from=":gneJ8_5" to="-gneE7" fromLane="0" toLane="0" dir="l" state="M"/>

</net>
