<?xml version="1.0" encoding="UTF-8"?>

<!-- generated on Mon May  4 14:10:03 2020 by Eclipse SUMO duarouter Version 1.5.0
<configuration xmlns:xsi="http://www.w3.org/2001/XMLSchema-instance" xsi:noNamespaceSchemaLocation="http://sumo.dlr.de/xsd/duarouterConfiguration.xsd">

    <input>
        <net-file value="bp_g_tl.net.xml"/>
        <route-files value="trips.trips.xml"/>
    </input>

    <output>
        <output-file value="rou1.rou.xml"/>
        <alternatives-output value="rou1.rou.alt.xml"/>
    </output>

    <time>
        <begin value="0"/>
        <end value="8.0"/>
    </time>

    <report>
        <no-warnings value="true"/>
        <ignore-errors value="true"/>
        <no-step-log value="true"/>
    </report>

</configuration>
-->

<routes xmlns:xsi="http://www.w3.org/2001/XMLSchema-instance" xsi:noNamespaceSchemaLocation="http://sumo.dlr.de/xsd/routes_file.xsd">
    <vehicle id="0" depart="0.5">
        <route edges="gneE9 -gneE10"/>
    </vehicle>
    <vehicle id="1" depart="0.5">
        <route edges="gneE8 gneE7"/>
    </vehicle>
    <vehicle id="2" depart="0.5">
        <route edges="gneE9 -gneE10"/>
    </vehicle>
    <vehicle id="3" depart="0.5">
        <route edges="gneE8 gneE7"/>
    </vehicle>
    <vehicle id="4" depart="0.5">
        <route edges="gneE8 gneE7"/>
    </vehicle>
    <vehicle id="5" depart="0.5">
        <route edges="gneE9 -gneE10"/>
    </vehicle>
    <vehicle id="6" depart="0.5">
        <route edges="gneE8 gneE7"/>
    </vehicle>
    <vehicle id="7" depart="0.5">
        <route edges="gneE9 -gneE10"/>
    </vehicle>
</routes>

